Localizador/34Bus/ModeleTeste_Curr_Elem.Txt

CIRCUIT ELEMENT CURRENTS

(Currents into element from indicated bus)

Power Delivery Elements

  Bus Phase    Magnitude, A     Angle      (Real)   +j  (Imag)

ELEMENT = "Vsource.SOURCE"
1        1           420.25 /_  140.6 =    -324.95 +j    266.48
1        2           420.25 /_   20.6 =     393.26 +j    148.18
1        3           420.25 /_  -99.4 =    -68.304 +j   -414.66
------------
1        0           420.25 /_  -39.4 =     324.95 +j   -266.48
1        0           420.25 /_ -159.4 =    -393.26 +j   -148.18
1        0           420.25 /_   80.6 =     68.304 +j    414.66

ELEMENT = "Line.L3_4"
3        1           397.66 /_  -39.4 =     307.07 +j   -252.67
3        2           397.66 /_ -159.4 =    -372.35 +j   -139.59
3        3           397.66 /_   80.6 =     65.286 +j    392.26
------------
4        1           397.66 /_  140.6 =    -307.07 +j    252.67
4        2           397.66 /_   20.6 =     372.35 +j    139.59
4        3           397.66 /_  -99.4 =    -65.286 +j   -392.26

ELEMENT = "Line.L1_2"
1        1           420.25 /_  -39.4 =     324.95 +j   -266.48
1        2           420.25 /_ -159.4 =    -393.26 +j   -148.18
1        3           420.25 /_   80.6 =     68.304 +j    414.66
------------
2        1           420.25 /_  140.6 =    -324.95 +j    266.48
2        2           420.25 /_   20.6 =     393.26 +j    148.18
2        3           420.25 /_  -99.4 =    -68.304 +j   -414.66

ELEMENT = "Line.L2_3"
2        1           420.25 /_  -39.4 =     324.95 +j   -266.48
2        2           420.25 /_ -159.4 =    -393.26 +j   -148.18
2        3           420.25 /_   80.6 =     68.304 +j    414.66
------------
3        1           420.25 /_  140.6 =    -324.95 +j    266.48
3        2           420.25 /_   20.6 =     393.26 +j    148.18
3        3           420.25 /_  -99.4 =    -68.304 +j   -414.66

ELEMENT = "Line.L4_5"
4        1           361.98 /_  -38.7 =     282.53 +j   -226.28
4        2           361.98 /_ -158.7 =    -337.23 +j   -131.54
4        3           361.98 /_   81.3 =     54.695 +j    357.82
------------
5        1           361.98 /_  141.3 =    -282.53 +j    226.28
5        2           361.98 /_   21.3 =     337.23 +j    131.54
5        3           361.98 /_  -98.7 =    -54.695 +j   -357.82

ELEMENT = "Line.L3_29"
3        1           22.598 /_  -37.7 =     17.886 +j   -13.812
3        2           22.598 /_ -157.7 =    -20.904 +j   -8.5835
3        3           22.598 /_   82.3 =     3.0186 +j    22.395
------------
29       1           22.598 /_  142.3 =    -17.886 +j    13.812
29       2           22.598 /_   22.3 =     20.904 +j    8.5835
29       3           22.598 /_  -97.7 =    -3.0186 +j   -22.395

ELEMENT = "Line.L4_37"
4        1           36.036 /_  -47.1 =     24.535 +j   -26.394
4        2           36.036 /_ -167.1 =    -35.125 +j   -8.0508
4        3           36.036 /_   72.9 =      10.59 +j    34.444
------------
37       1           36.036 /_  132.9 =    -24.535 +j    26.394
37       2           36.036 /_   12.9 =     35.125 +j    8.0508
37       3           36.036 /_ -107.1 =     -10.59 +j   -34.444

ELEMENT = "Line.L5_48"
5        1           143.76 /_  -51.9 =     88.774 +j   -113.08
5        2           143.76 /_ -171.9 =    -142.31 +j   -20.342
5        3           143.76 /_   68.1 =     53.539 +j    133.42
------------
48       1           143.76 /_  128.1 =    -88.774 +j    113.08
48       2           143.76 /_    8.1 =     142.31 +j    20.342
48       3           143.76 /_ -111.9 =    -53.539 +j   -133.42

ELEMENT = "Line.L29_30"
29       1            16.26 /_  -38.0 =     12.812 +j   -10.011
29       2            16.26 /_ -158.0 =    -15.076 +j     -6.09
29       3            16.26 /_   82.0 =      2.264 +j    16.101
------------
30       1            16.26 /_  142.0 =    -12.812 +j    10.011
30       2            16.26 /_   22.0 =     15.076 +j      6.09
30       3            16.26 /_  -98.0 =     -2.264 +j   -16.101

ELEMENT = "Line.L37_38"
37       1           29.814 /_  -49.3 =      19.46 +j   -22.586
37       2           29.814 /_ -169.3 =    -29.291 +j     -5.56
37       3           29.814 /_   70.7 =     9.8302 +j    28.146
------------
38       1           29.814 /_  130.7 =     -19.46 +j    22.586
38       2           29.814 /_   10.7 =     29.291 +j      5.56
38       3           29.814 /_ -109.3 =    -9.8302 +j   -28.146

ELEMENT = "Line.L48_49"
48       1           143.76 /_  -51.9 =     88.774 +j   -113.08
48       2           143.76 /_ -171.9 =    -142.31 +j   -20.342
48       3           143.76 /_   68.1 =     53.539 +j    133.42
------------
49       1           143.76 /_  128.1 =    -88.774 +j    113.08
49       2           143.76 /_    8.1 =     142.31 +j    20.342
49       3           143.76 /_ -111.9 =    -53.539 +j   -133.42

ELEMENT = "Line.L49_50"
49       1           125.15 /_  -54.1 =     73.463 +j   -101.32
49       2           125.15 /_ -174.1 =    -124.47 +j   -12.963
49       3           125.15 /_   65.9 =      51.01 +j    114.28
------------
50       1           125.15 /_  125.9 =    -73.463 +j    101.32
50       2           125.15 /_    5.9 =     124.47 +j    12.963
50       3           125.15 /_ -114.1 =     -51.01 +j   -114.28

ELEMENT = "Line.L50_51"
50       1           81.067 /_  -40.2 =     61.962 +j   -52.274
50       2           81.067 /_ -160.2 =    -76.251 +j   -27.524
50       3           81.067 /_   79.8 =      14.29 +j    79.798
------------
51       1           81.067 /_  139.8 =    -61.962 +j    52.274
51       2           81.067 /_   19.8 =     76.251 +j    27.524
51       3           81.067 /_ -100.2 =     -14.29 +j   -79.798

ELEMENT = "Line.L6_7"
6        1            224.4 /_  -30.3 =     193.76 +j    -113.2
6        2            224.4 /_ -150.3 =    -194.92 +j    -111.2
6        3            224.4 /_   89.7 =      1.156 +j     224.4
------------
7        1            224.4 /_  149.7 =    -193.76 +j     113.2
7        2            224.4 /_   29.7 =     194.92 +j     111.2
7        3            224.4 /_  -90.3 =     -1.156 +j    -224.4

ELEMENT = "Line.L7_8"
7        1            223.8 /_  -30.3 =     193.29 +j    -112.8
7        2            223.8 /_ -150.3 =    -194.33 +j      -111
7        3            223.8 /_   89.7 =     1.0412 +j    223.79
------------
8        1            223.8 /_  149.7 =    -193.29 +j     112.8
8        2            223.8 /_   29.7 =     194.33 +j       111
8        3            223.8 /_  -90.3 =    -1.0412 +j   -223.79

ELEMENT = "Line.L8_9"
8        1           218.12 /_  -31.0 =     186.96 +j   -112.34
8        2           218.12 /_ -151.0 =    -190.77 +j   -105.75
8        3           218.12 /_   89.0 =     3.8071 +j    218.08
------------
9        1           218.12 /_  149.0 =    -186.96 +j    112.34
9        2           218.12 /_   29.0 =     190.77 +j    105.75
9        3           218.12 /_  -91.0 =    -3.8071 +j   -218.08

ELEMENT = "Line.L9_10"
9        1            196.2 /_  -30.4 =     169.23 +j    -99.27
9        2            196.2 /_ -150.4 =    -170.59 +j   -96.925
9        3            196.2 /_   89.6 =     1.3542 +j    196.19
------------
10       1            196.2 /_  149.6 =    -169.23 +j     99.27
10       2            196.2 /_   29.6 =     170.59 +j    96.925
10       3            196.2 /_  -90.4 =    -1.3542 +j   -196.19

ELEMENT = "Line.L9_52"
9        1           8.1448 /_  -36.1 =     6.5834 +j   -4.7955
9        2           8.1448 /_ -156.1 =    -7.4447 +j   -3.3036
9        3           8.1448 /_   83.9 =    0.86133 +j    8.0991
------------
52       1           8.1448 /_  143.9 =    -6.5834 +j    4.7955
52       2           8.1448 /_   23.9 =     7.4447 +j    3.3036
52       3           8.1448 /_  -96.1 =   -0.86133 +j   -8.0991

ELEMENT = "Line.L10_54"
10       1           99.873 /_  -28.6 =     87.651 +j   -47.875
10       2           99.873 /_ -148.6 =    -85.286 +j    -51.97
10       3           99.873 /_   91.4 =    -2.3646 +j    99.845
------------
54       1           99.873 /_  151.4 =    -87.651 +j    47.875
54       2           99.873 /_   31.4 =     85.286 +j     51.97
54       3           99.873 /_  -88.6 =     2.3646 +j   -99.845

ELEMENT = "Line.L54_55"
54       1            99.67 /_  -28.7 =     87.459 +j   -47.802
54       2            99.67 /_ -148.7 =    -85.127 +j   -51.841
54       3            99.67 /_   91.3 =    -2.3316 +j    99.643
------------
55       1            99.67 /_  151.3 =    -87.459 +j    47.802
55       2            99.67 /_   31.3 =     85.127 +j    51.841
55       3            99.67 /_  -88.7 =     2.3316 +j   -99.643

ELEMENT = "Line.L55_56"
55       1           95.245 /_  -28.3 =     83.872 +j   -45.134
55       2           95.245 /_ -148.3 =    -81.023 +j   -50.068
55       3           95.245 /_   91.7 =    -2.8487 +j    95.202
------------
56       1           95.245 /_  151.7 =    -83.872 +j    45.134
56       2           95.245 /_   31.7 =     81.023 +j    50.068
56       3           95.245 /_  -88.3 =     2.8487 +j   -95.202

ELEMENT = "Line.L56_57"
56       1           91.455 /_  -27.9 =     80.789 +j   -42.862
56       2           91.455 /_ -147.9 =    -77.514 +j   -48.535
56       3           91.455 /_   92.1 =    -3.2753 +j    91.396
------------
57       1           91.455 /_  152.1 =    -80.789 +j    42.862
57       2           91.455 /_   32.1 =     77.514 +j    48.535
57       3           91.455 /_  -87.9 =     3.2753 +j   -91.396

ELEMENT = "Line.L61_62"
61       1           88.786 /_  -25.5 =     80.142 +j   -38.211
61       2           88.786 /_ -145.5 =    -73.163 +j     -50.3
61       3           88.786 /_   94.5 =    -6.9797 +j    88.511
------------
62       1           88.786 /_  154.5 =    -80.142 +j    38.211
62       2           88.786 /_   34.5 =     73.163 +j      50.3
62       3           88.786 /_  -85.5 =     6.9797 +j   -88.511

ELEMENT = "Line.L63_64"
63       1           14.581 /_  -23.2 =     13.402 +j   -5.7431
63       2           14.581 /_ -143.2 =    -11.675 +j   -8.7349
63       3           14.581 /_   96.8 =    -1.7273 +j    14.478
------------
64       1           14.581 /_  156.8 =    -13.402 +j    5.7431
64       2           14.581 /_   36.8 =     11.675 +j    8.7349
64       3           14.581 /_  -83.2 =     1.7273 +j   -14.478

ELEMENT = "Line.L64_65"
64       1           14.581 /_  -23.2 =     13.402 +j   -5.7431
64       2           14.581 /_ -143.2 =    -11.675 +j   -8.7349
64       3           14.581 /_   96.8 =    -1.7273 +j    14.478
------------
65       1           14.581 /_  156.8 =    -13.402 +j    5.7431
65       2           14.581 /_   36.8 =     11.675 +j    8.7349
65       3           14.581 /_  -83.2 =     1.7273 +j   -14.478

ELEMENT = "Line.L65_66"
65       1           2.9621 /_  -22.9 =     2.7278 +j   -1.1546
65       2           2.9621 /_ -142.9 =    -2.3638 +j    -1.785
65       3           2.9621 /_   97.1 =   -0.36401 +j    2.9396
------------
66       1           2.9621 /_  157.1 =    -2.7278 +j    1.1546
66       2           2.9621 /_   37.1 =     2.3638 +j     1.785
66       3           2.9621 /_  -82.9 =    0.36401 +j   -2.9396

ELEMENT = "Line.L5_6"
5        1            224.4 /_  -30.3 =     193.76 +j    -113.2
5        2            224.4 /_ -150.3 =    -194.92 +j    -111.2
5        3            224.4 /_   89.7 =      1.156 +j     224.4
------------
6        1            224.4 /_  149.7 =    -193.76 +j     113.2
6        2            224.4 /_   29.7 =     194.92 +j     111.2
6        3            224.4 /_  -90.3 =     -1.156 +j    -224.4

ELEMENT = "Line.L38_39"
38       1           23.621 /_  -52.5 =     14.367 +j   -18.749
38       2           23.621 /_ -172.5 =    -23.421 +j   -3.0672
38       3           23.621 /_   67.5 =      9.054 +j    21.816
------------
39       1           23.621 /_  127.5 =    -14.367 +j    18.749
39       2           23.621 /_    7.5 =     23.421 +j    3.0672
39       3           23.621 /_ -112.5 =     -9.054 +j   -21.816

ELEMENT = "Line.L39_40"
39       1           23.621 /_  -52.5 =     14.367 +j   -18.749
39       2           23.621 /_ -172.5 =    -23.421 +j   -3.0672
39       3           23.621 /_   67.5 =      9.054 +j    21.816
------------
40       1           23.621 /_  127.5 =    -14.367 +j    18.749
40       2           23.621 /_    7.5 =     23.421 +j    3.0672
40       3           23.621 /_ -112.5 =     -9.054 +j   -21.816

ELEMENT = "Line.L41_42"
41       1           12.631 /_  -67.1 =      4.909 +j   -11.638
41       2           12.631 /_  172.9 =    -12.534 +j    1.5679
41       3           12.631 /_   52.9 =     7.6247 +j    10.071
------------
42       1           12.631 /_  112.9 =     -4.909 +j    11.638
42       2           12.631 /_   -7.1 =     12.534 +j   -1.5679
42       3           12.631 /_ -127.1 =    -7.6247 +j   -10.071

ELEMENT = "Line.L42_43"
42       1           12.357 /_  -67.8 =     4.6764 +j   -11.437
42       2           12.357 /_  172.2 =    -12.243 +j    1.6689
42       3           12.357 /_   52.2 =     7.5669 +j    9.7686
------------
43       1           12.357 /_  112.2 =    -4.6764 +j    11.437
43       2           12.357 /_   -7.8 =     12.243 +j   -1.6689
43       3           12.357 /_ -127.8 =    -7.5669 +j   -9.7686

ELEMENT = "Line.L43_44"
43       1           12.357 /_  -67.8 =     4.6764 +j   -11.437
43       2           12.357 /_  172.2 =    -12.243 +j    1.6689
43       3           12.357 /_   52.2 =     7.5669 +j    9.7686
------------
44       1           12.357 /_  112.2 =    -4.6764 +j    11.437
44       2           12.357 /_   -7.8 =     12.243 +j   -1.6689
44       3           12.357 /_ -127.8 =    -7.5669 +j   -9.7686

ELEMENT = "Line.L44_45"
44       1           11.124 /_  -71.7 =     3.4942 +j   -10.561
44       2           11.124 /_  168.3 =    -10.893 +j    2.2546
44       3           11.124 /_   48.3 =     7.3993 +j    8.3067
------------
45       1           11.124 /_  108.3 =    -3.4942 +j    10.561
45       2           11.124 /_  -11.7 =     10.893 +j   -2.2546
45       3           11.124 /_ -131.7 =    -7.3993 +j   -8.3067

ELEMENT = "Line.L45_46"
45       1           11.124 /_  -71.7 =     3.4942 +j   -10.561
45       2           11.124 /_  168.3 =    -10.893 +j    2.2546
45       3           11.124 /_   48.3 =     7.3993 +j    8.3067
------------
46       1           11.124 /_  108.3 =    -3.4942 +j    10.561
46       2           11.124 /_  -11.7 =     10.893 +j   -2.2546
46       3           11.124 /_ -131.7 =    -7.3993 +j   -8.3067

ELEMENT = "Line.L40_41"
40       1           17.993 /_  -57.6 =     9.6379 +j   -15.194
40       2           17.993 /_ -177.6 =    -17.977 +j  -0.74976
40       3           17.993 /_   62.4 =     8.3393 +j    15.944
------------
41       1           17.993 /_  122.4 =    -9.6379 +j    15.194
41       2           17.993 /_    2.4 =     17.977 +j   0.74976
41       3           17.993 /_ -117.6 =    -8.3393 +j   -15.944

ELEMENT = "Line.L46_47"
46       1           5.5621 /_  -71.7 =     1.7471 +j   -5.2806
46       2           5.5621 /_  168.3 =    -5.4467 +j    1.1273
46       3           5.5621 /_   48.3 =     3.6996 +j    4.1534
------------
47       1           5.5621 /_  108.3 =    -1.7471 +j    5.2806
47       2           5.5621 /_  -11.7 =     5.4467 +j   -1.1273
47       3           5.5621 /_ -131.7 =    -3.6996 +j   -4.1534

ELEMENT = "Line.L62_63"
62       1           16.333 /_  -23.3 =     15.005 +j   -6.4522
62       2           16.333 /_ -143.3 =     -13.09 +j   -9.7682
62       3           16.333 /_   96.7 =    -1.9144 +j     16.22
------------
63       1           16.333 /_  156.7 =    -15.005 +j    6.4522
63       2           16.333 /_   36.7 =      13.09 +j    9.7682
63       3           16.333 /_  -83.3 =     1.9144 +j    -16.22

ELEMENT = "Line.L10_11"
10       1            90.95 /_  -31.9 =     77.183 +j   -48.111
10       2            90.95 /_ -151.9 =    -80.257 +j   -42.787
10       3            90.95 /_   88.1 =     3.0738 +j    90.898
------------
11       1            90.95 /_  148.1 =    -77.183 +j    48.111
11       2            90.95 /_   28.1 =     80.257 +j    42.787
11       3            90.95 /_  -91.9 =    -3.0738 +j   -90.898

ELEMENT = "Line.L11_12"
11       1            86.52 /_  -31.8 =     73.542 +j   -45.577
11       2            86.52 /_ -151.8 =    -76.242 +j     -40.9
11       3            86.52 /_   88.2 =     2.7004 +j    86.478
------------
12       1            86.52 /_  148.2 =    -73.542 +j    45.577
12       2            86.52 /_   28.2 =     76.242 +j      40.9
12       3            86.52 /_  -91.8 =    -2.7004 +j   -86.478

ELEMENT = "Line.L12_13"
12       1           58.763 /_  -30.6 =     50.597 +j   -29.883
12       2           58.763 /_ -150.6 =    -51.178 +j   -28.876
12       3           58.763 /_   89.4 =    0.58139 +j     58.76
------------
13       1           58.763 /_  149.4 =    -50.597 +j    29.883
13       2           58.763 /_   29.4 =     51.178 +j    28.876
13       3           58.763 /_  -90.6 =   -0.58139 +j    -58.76

ELEMENT = "Line.L13_14"
13       1           34.538 /_  -28.7 =     30.301 +j   -16.574
13       2           34.538 /_ -148.7 =    -29.504 +j   -17.955
13       3           34.538 /_   91.3 =   -0.79711 +j    34.528
------------
14       1           34.538 /_  151.3 =    -30.301 +j    16.574
14       2           34.538 /_   31.3 =     29.504 +j    17.955
14       3           34.538 /_  -88.7 =    0.79711 +j   -34.528

ELEMENT = "Line.L14_15"
14       1           33.515 /_  -28.6 =     29.421 +j   -16.051
14       2           33.515 /_ -148.6 =    -28.612 +j   -17.454
14       3           33.515 /_   91.4 =   -0.80969 +j    33.505
------------
15       1           33.515 /_  151.4 =    -29.421 +j    16.051
15       2           33.515 /_   31.4 =     28.612 +j    17.454
15       3           33.515 /_  -88.6 =    0.80969 +j   -33.505

ELEMENT = "Line.L15_16"
15       1           32.626 /_  -28.7 =     28.614 +j   -15.675
15       2           32.626 /_ -148.7 =    -27.882 +j   -16.944
15       3           32.626 /_   91.3 =    -0.7326 +j    32.618
------------
16       1           32.626 /_  151.3 =    -28.614 +j    15.675
16       2           32.626 /_   31.3 =     27.882 +j    16.944
16       3           32.626 /_  -88.7 =     0.7326 +j   -32.618

ELEMENT = "Line.L16_17"
16       1           32.626 /_  -28.7 =     28.614 +j   -15.675
16       2           32.626 /_ -148.7 =    -27.882 +j   -16.944
16       3           32.626 /_   91.3 =    -0.7326 +j    32.618
------------
17       1           32.626 /_  151.3 =    -28.614 +j    15.675
17       2           32.626 /_   31.3 =     27.882 +j    16.944
17       3           32.626 /_  -88.7 =     0.7326 +j   -32.618

ELEMENT = "Line.L17_18"
17       1            27.86 /_  -28.8 =     24.412 +j   -13.427
17       2            27.86 /_ -148.8 =    -23.834 +j   -14.428
17       3            27.86 /_   91.2 =   -0.57802 +j    27.854
------------
18       1            27.86 /_  151.2 =    -24.412 +j    13.427
18       2            27.86 /_   31.2 =     23.834 +j    14.428
18       3            27.86 /_  -88.8 =    0.57802 +j   -27.854

ELEMENT = "Line.L18_19"
18       1           22.711 /_  -28.7 =     19.922 +j   -10.904
18       2           22.711 /_ -148.7 =    -19.404 +j   -11.801
18       3           22.711 /_   91.3 =   -0.51763 +j    22.705
------------
19       1           22.711 /_  151.3 =    -19.922 +j    10.904
19       2           22.711 /_   31.3 =     19.404 +j    11.801
19       3           22.711 /_  -88.7 =    0.51763 +j   -22.705

ELEMENT = "Line.L19_20"
19       1           17.562 /_  -28.5 =     15.433 +j   -8.3826
19       2           17.562 /_ -148.5 =    -14.976 +j   -9.1739
19       3           17.562 /_   91.5 =   -0.45685 +j    17.556
------------
20       1           17.562 /_  151.5 =    -15.433 +j    8.3826
20       2           17.562 /_   31.5 =     14.976 +j    9.1739
20       3           17.562 /_  -88.5 =    0.45685 +j   -17.556

ELEMENT = "Line.L20_21"
20       1           17.562 /_  -28.5 =     15.433 +j   -8.3826
20       2           17.562 /_ -148.5 =    -14.976 +j   -9.1739
20       3           17.562 /_   91.5 =   -0.45685 +j    17.556
------------
21       1           17.562 /_  151.5 =    -15.433 +j    8.3826
21       2           17.562 /_   31.5 =     14.976 +j    9.1739
21       3           17.562 /_  -88.5 =    0.45685 +j   -17.556

ELEMENT = "Line.L21_22"
21       1           17.468 /_  -28.5 =     15.349 +j   -8.3394
21       2           17.468 /_ -148.5 =    -14.897 +j   -9.1228
21       3           17.468 /_   91.5 =   -0.45234 +j    17.462
------------
22       1           17.468 /_  151.5 =    -15.349 +j    8.3394
22       2           17.468 /_   31.5 =     14.897 +j    9.1228
22       3           17.468 /_  -88.5 =    0.45234 +j   -17.462

ELEMENT = "Line.L22_23"
22       1           6.0696 /_  -28.3 =     5.3456 +j   -2.8749
22       2           6.0696 /_ -148.3 =    -5.1625 +j    -3.192
22       3           6.0696 /_   91.7 =   -0.18309 +j    6.0668
------------
23       1           6.0696 /_  151.7 =    -5.3456 +j    2.8749
23       2           6.0696 /_   31.7 =     5.1625 +j     3.192
23       3           6.0696 /_  -88.3 =    0.18309 +j   -6.0668

ELEMENT = "Line.L23_24"
23       1           5.5512 /_  -28.4 =     4.8838 +j   -2.6392
23       2           5.5512 /_ -148.4 =    -4.7275 +j   -2.9099
23       3           5.5512 /_   91.6 =   -0.15627 +j     5.549
------------
24       1           5.5512 /_  151.6 =    -4.8838 +j    2.6392
24       2           5.5512 /_   31.6 =     4.7275 +j    2.9099
24       3           5.5512 /_  -88.4 =    0.15627 +j    -5.549

ELEMENT = "Line.L24_25"
24       1           5.5512 /_  -28.4 =     4.8838 +j   -2.6392
24       2           5.5512 /_ -148.4 =    -4.7275 +j   -2.9099
24       3           5.5512 /_   91.6 =   -0.15627 +j     5.549
------------
25       1           5.5512 /_  151.6 =    -4.8838 +j    2.6392
25       2           5.5512 /_   31.6 =     4.7275 +j    2.9099
25       3           5.5512 /_  -88.4 =    0.15627 +j    -5.549

ELEMENT = "Line.L25_26"
25       1           2.7585 /_  -28.4 =      2.427 +j    -1.311
25       2           2.7585 /_ -148.4 =    -2.3489 +j   -1.4463
25       3           2.7585 /_   91.6 =  -0.078094 +j    2.7573
------------
26       1           2.7585 /_  151.6 =     -2.427 +j     1.311
26       2           2.7585 /_   31.6 =     2.3489 +j    1.4463
26       3           2.7585 /_  -88.4 =   0.078094 +j   -2.7573

ELEMENT = "Line.L26_27"
26       1           2.7585 /_  -28.4 =      2.427 +j    -1.311
26       2           2.7585 /_ -148.4 =    -2.3489 +j   -1.4463
26       3           2.7585 /_   91.6 =  -0.078094 +j    2.7573
------------
27       1           2.7585 /_  151.6 =     -2.427 +j     1.311
27       2           2.7585 /_   31.6 =     2.3489 +j    1.4463
27       3           2.7585 /_  -88.4 =   0.078094 +j   -2.7573

ELEMENT = "Line.L27_28"
27       1           1.3788 /_  -28.4 =     1.2132 +j   -0.6552
27       2           1.3788 /_ -148.4 =     -1.174 +j  -0.72304
27       3           1.3788 /_   91.6 =  -0.039168 +j    1.3782
------------
28       1           1.3788 /_  151.6 =    -1.2132 +j    0.6552
28       2           1.3788 /_   31.6 =      1.174 +j   0.72304
28       3           1.3788 /_  -88.4 =   0.039168 +j   -1.3782

ELEMENT = "Line.L30_31"
30       1           9.9057 /_  -38.7 =     7.7313 +j   -6.1928
30       2           9.9057 /_ -158.7 =    -9.2288 +j   -3.5991
30       3           9.9057 /_   81.3 =     1.4974 +j    9.7919
------------
31       1           9.9057 /_  141.3 =    -7.7313 +j    6.1928
31       2           9.9057 /_   21.3 =     9.2288 +j    3.5991
31       3           9.9057 /_  -98.7 =    -1.4974 +j   -9.7919

ELEMENT = "Line.L31_32"
31       1           9.9057 /_  -38.7 =     7.7313 +j   -6.1928
31       2           9.9057 /_ -158.7 =    -9.2288 +j   -3.5991
31       3           9.9057 /_   81.3 =     1.4974 +j    9.7919
------------
32       1           9.9057 /_  141.3 =    -7.7313 +j    6.1928
32       2           9.9057 /_   21.3 =     9.2288 +j    3.5991
32       3           9.9057 /_  -98.7 =    -1.4974 +j   -9.7919

ELEMENT = "Line.L32_33"
32       1           9.9057 /_  -38.7 =     7.7313 +j   -6.1928
32       2           9.9057 /_ -158.7 =    -9.2288 +j   -3.5991
32       3           9.9057 /_   81.3 =     1.4974 +j    9.7919
------------
33       1           9.9057 /_  141.3 =    -7.7313 +j    6.1928
33       2           9.9057 /_   21.3 =     9.2288 +j    3.5991
33       3           9.9057 /_  -98.7 =    -1.4974 +j   -9.7919

ELEMENT = "Line.L33_34"
33       1           9.9057 /_  -38.7 =     7.7313 +j   -6.1928
33       2           9.9057 /_ -158.7 =    -9.2288 +j   -3.5991
33       3           9.9057 /_   81.3 =     1.4974 +j    9.7919
------------
34       1           9.9057 /_  141.3 =    -7.7313 +j    6.1928
34       2           9.9057 /_   21.3 =     9.2288 +j    3.5991
34       3           9.9057 /_  -98.7 =    -1.4974 +j   -9.7919

ELEMENT = "Line.L34_35"
34       1           6.4948 /_  -39.9 =      4.986 +j   -4.1621
34       2           6.4948 /_ -159.9 =    -6.0974 +j    -2.237
34       3           6.4948 /_   80.1 =     1.1114 +j     6.399
------------
35       1           6.4948 /_  140.1 =     -4.986 +j    4.1621
35       2           6.4948 /_   20.1 =     6.0974 +j     2.237
35       3           6.4948 /_  -99.9 =    -1.1114 +j    -6.399

ELEMENT = "Line.L35_36"
35       1            1.382 /_  -34.6 =     1.1371 +j  -0.78545
35       2            1.382 /_ -154.6 =    -1.2488 +j  -0.59202
35       3            1.382 /_   85.4 =    0.11168 +j    1.3775
------------
36       1            1.382 /_  145.4 =    -1.1371 +j   0.78545
36       2            1.382 /_   25.4 =     1.2488 +j   0.59202
36       3            1.382 /_  -94.6 =   -0.11168 +j   -1.3775

ELEMENT = "Line.L52_53"
52       1          0.67829 /_  -37.6 =    0.53727 +j  -0.41403
52       2          0.67829 /_ -157.6 =    -0.6272 +j  -0.25827
52       3          0.67829 /_   82.4 =   0.089927 +j    0.6723
------------
53       1          0.67829 /_  142.4 =   -0.53727 +j   0.41403
53       2          0.67829 /_   22.4 =     0.6272 +j   0.25827
53       3          0.67829 /_  -97.6 =  -0.089927 +j   -0.6723

ELEMENT = "Line.L57_58"
57       1           91.455 /_  -27.9 =     80.789 +j   -42.862
57       2           91.455 /_ -147.9 =    -77.514 +j   -48.535
57       3           91.455 /_   92.1 =    -3.2753 +j    91.396
------------
58       1           91.455 /_  152.1 =    -80.789 +j    42.862
58       2           91.455 /_   32.1 =     77.514 +j    48.535
58       3           91.455 /_  -87.9 =     3.2753 +j   -91.396

ELEMENT = "Line.L58_59"
58       1           91.455 /_  -27.9 =     80.789 +j   -42.862
58       2           91.455 /_ -147.9 =    -77.514 +j   -48.535
58       3           91.455 /_   92.1 =    -3.2753 +j    91.396
------------
59       1           91.455 /_  152.1 =    -80.789 +j    42.862
59       2           91.455 /_   32.1 =     77.514 +j    48.535
59       3           91.455 /_  -87.9 =     3.2753 +j   -91.396

ELEMENT = "Line.L59_60"
59       1           91.455 /_  -27.9 =     80.789 +j   -42.862
59       2           91.455 /_ -147.9 =    -77.514 +j   -48.535
59       3           91.455 /_   92.1 =    -3.2753 +j    91.396
------------
60       1           91.455 /_  152.1 =    -80.789 +j    42.862
60       2           91.455 /_   32.1 =     77.514 +j    48.535
60       3           91.455 /_  -87.9 =     3.2753 +j   -91.396

ELEMENT = "Line.L60_61"
60       1           88.786 /_  -25.5 =     80.142 +j   -38.211
60       2           88.786 /_ -145.5 =    -73.163 +j     -50.3
60       3           88.786 /_   94.5 =    -6.9797 +j    88.511
------------
61       1           88.786 /_  154.5 =    -80.142 +j    38.211
61       2           88.786 /_   34.5 =     73.163 +j      50.3
61       3           88.786 /_  -85.5 =     6.9797 +j   -88.511

ELEMENT = "Line.L12_67"
12       1           5.5038 /_  -34.3 =     4.5442 +j   -3.1052
12       2           5.5038 /_ -154.3 =    -4.9613 +j   -2.3828
12       3           5.5038 /_   85.7 =     0.4171 +j     5.488
------------
67       1           5.5038 /_  145.7 =    -4.5442 +j    3.1052
67       2           5.5038 /_   25.7 =     4.9613 +j    2.3828
67       3           5.5038 /_  -94.3 =    -0.4171 +j    -5.488

ELEMENT = "Line.L67_68"
67       1           2.7519 /_  -34.3 =     2.2721 +j   -1.5526
67       2           2.7519 /_ -154.3 =    -2.4806 +j   -1.1914
67       3           2.7519 /_   85.7 =    0.20854 +j     2.744
------------
68       1           2.7519 /_  145.7 =    -2.2721 +j    1.5526
68       2           2.7519 /_   25.7 =     2.4806 +j    1.1914
68       3           2.7519 /_  -94.3 =   -0.20854 +j    -2.744

ELEMENT = "Line.L13_69"
13       1           3.9281 /_  -33.2 =     3.2876 +j   -2.1498
13       2           3.9281 /_ -153.2 =    -3.5056 +j   -1.7723
13       3           3.9281 /_   86.8 =    0.21794 +j     3.922
------------
69       1           3.9281 /_  146.8 =    -3.2876 +j    2.1498
69       2           3.9281 /_   26.8 =     3.5056 +j    1.7723
69       3           3.9281 /_  -93.2 =   -0.21794 +j    -3.922

ELEMENT = "Line.L69_70"
69       1         0.038884 /_  -33.2 =   0.032541 +j -0.021285
69       2         0.038884 /_ -153.2 =  -0.034704 +j -0.017538
69       3         0.038884 /_   86.8 =  0.0021632 +j  0.038824
------------
70       1         0.038884 /_  146.8 =  -0.032541 +j  0.021285
70       2         0.038884 /_   26.8 =   0.034704 +j  0.017538
70       3         0.038884 /_  -93.2 =  -0.0021632 +j -0.038824

= = = = = = = = = = = = = = = = = = =  = = = = = = = = = = =  = =

Power Conversion Elements

  Bus Phase    Magnitude, A     Angle      (Real)   +j  (Imag)

ELEMENT = "Load.L7"
7        1          0.61789 /_  -40.7 =     0.4684 +j  -0.40298
7        2          0.61789 /_ -160.7 =   -0.58319 +j  -0.20415
...