Localizador/34Bus/ModeleTeste_VLL.Txt

SYMMETRICAL COMPONENT PHASE-PHASE VOLTAGES BY BUS (for 3-phase buses)

Bus   Mag:   V1 (kV)    p.u.     V2 (kV)   %V2/V1    V0 (kV)    %V0/V1

1         97.1      0.971  4.122E-008  4.245E-008 8.135E-015 8.377E-015
3           97       0.97  4.118E-008  4.245E-008 1.819E-014 1.875E-014
4           97       0.97  4.118E-008  4.245E-008 8.135E-015 8.386E-015
2        97.05     0.9705  4.12E-008  4.245E-008 1.819E-014 1.874E-014
5        96.87     0.9687  4.112E-008  4.245E-008 1.312E-014 1.354E-014
29       96.98     0.9698  4.117E-008  4.245E-008 1.543E-014 1.592E-014
37       96.96     0.9696  4.116E-008  4.245E-008 1.029E-014 1.061E-014
48       96.73     0.9673  4.107E-008  4.245E-008 1.819E-014 1.88E-014
30       96.72     0.9672  4.106E-008  4.245E-008 1.029E-014 1.064E-014
38       96.45     0.9645  4.094E-008  4.245E-008 1.627E-014 1.687E-014
49        93.4      0.934  3.965E-008  4.245E-008 1.627E-014 1.742E-014
50       83.49     0.8349  3.545E-008  4.246E-008 9.095E-015 1.089E-014
51       81.87     0.8187  3.476E-008  4.246E-008 1.165E-014 1.423E-014
6        95.99     0.9599  4.075E-008  4.245E-008 1.627E-014 1.695E-014
7        86.04     0.8604  3.653E-008  4.245E-008 1.165E-014 1.354E-014
8         75.7      0.757  3.214E-008  4.246E-008 1.421E-014 1.877E-014
9        73.26     0.7326  3.11E-008  4.246E-008 1.165E-014 1.59E-014
10       72.09     0.7209  3.061E-008  4.246E-008  7.5E-015 1.04E-014
52       73.17     0.7317  3.107E-008  4.246E-008 9.095E-015 1.243E-014
54       69.98     0.6998  2.971E-008  4.246E-008 8.135E-015 1.162E-014
55       67.53     0.6753  2.867E-008  4.246E-008 1.15E-014 1.704E-014
56       64.25     0.6425  2.728E-008  4.246E-008 5.457E-015 8.494E-015
57       61.13     0.6113  2.595E-008  4.246E-008 6.558E-015 1.073E-014
61       30.06     0.3006  1.276E-008  4.246E-008 3.666E-015 1.22E-014
62       24.64     0.2464  1.046E-008  4.246E-008 2.449E-015 9.939E-015
63       23.16     0.2316  9.834E-009  4.246E-008 3.279E-015 1.416E-014
64       22.91     0.2291  9.726E-009  4.246E-008 1.64E-015 7.157E-015
65       21.66     0.2166  9.198E-009  4.246E-008 2.876E-015 1.328E-014
66       21.29     0.2129  9.041E-009  4.246E-008 2.876E-015 1.351E-014
39       96.03     0.9603  4.077E-008  4.245E-008 1.627E-014 1.694E-014
40       95.91     0.9591  4.072E-008  4.245E-008 1.543E-014 1.609E-014
41       95.91     0.9591  4.071E-008  4.245E-008 1.819E-014 1.897E-014
42       94.44     0.9444  4.009E-008  4.245E-008 1.15E-014 1.218E-014
43       93.83     0.9383  3.983E-008  4.245E-008 1.554E-014 1.656E-014
44       93.75     0.9375  3.98E-008  4.245E-008 1.627E-014 1.735E-014
45       93.74     0.9374  3.979E-008  4.245E-008 1.421E-014 1.516E-014
46       93.55     0.9355  3.971E-008  4.245E-008 1.165E-014 1.245E-014
47       93.55     0.9355  3.971E-008  4.245E-008 1.716E-014 1.834E-014
11       63.85     0.6385  2.711E-008  4.246E-008 8.135E-015 1.274E-014
12       62.06     0.6206  2.635E-008  4.246E-008 7.276E-015 1.172E-014
13       57.44     0.5744  2.439E-008  4.247E-008 5.145E-015 8.957E-015
14        53.5      0.535  2.272E-008  4.246E-008 7.333E-015 1.371E-014
15       49.63     0.4963  2.108E-008  4.246E-008 7.103E-015 1.431E-014
16       45.84     0.4584  1.947E-008  4.246E-008 4.898E-015 1.068E-014
17       45.14     0.4514  1.917E-008  4.246E-008 8.135E-015 1.802E-014
18          44       0.44  1.868E-008  4.246E-008 4.898E-015 1.113E-014
19       43.99     0.4399  1.868E-008  4.246E-008 4.067E-015 9.246E-015
20       43.37     0.4337  1.841E-008  4.246E-008 7.103E-015 1.638E-014
21       42.96     0.4296  1.824E-008  4.246E-008 5.824E-015 1.356E-014
22       42.31     0.4231  1.797E-008  4.246E-008 7.717E-015 1.824E-014
23        42.3      0.423  1.796E-008  4.246E-008 5.752E-015 1.36E-014
24       42.21     0.4221  1.792E-008  4.246E-008 5.824E-015 1.38E-014
25          42       0.42  1.783E-008  4.246E-008 4.067E-015 9.685E-015
26       41.77     0.4177  1.774E-008  4.246E-008 6.558E-015 1.57E-014
27       41.68     0.4168  1.77E-008  4.246E-008 5.145E-015 1.234E-014
28       41.65     0.4165  1.769E-008  4.246E-008 4.067E-015 9.765E-015
31        96.3      0.963  4.088E-008  4.245E-008 1.627E-014 1.69E-014
32       96.22     0.9622  4.085E-008  4.245E-008 1.819E-014 1.89E-014
33       95.85     0.9585  4.069E-008  4.245E-008 1.312E-014 1.369E-014
34       94.96     0.9496  4.031E-008  4.245E-008 1.421E-014 1.496E-014
35       93.77     0.9377  3.981E-008  4.245E-008 1.029E-014 1.097E-014
36       93.55     0.9355  3.971E-008  4.245E-008 9.796E-015 1.047E-014
53       73.15     0.7315  3.106E-008  4.246E-008 8.135E-015 1.112E-014
58       44.84     0.4484  1.904E-008  4.246E-008 5.145E-015 1.147E-014
59       36.89     0.3689  1.566E-008  4.246E-008 5.145E-015 1.394E-014
60       33.84     0.3384  1.437E-008  4.246E-008 5.824E-015 1.721E-014
67       61.94     0.6194  2.63E-008  4.246E-008 5.457E-015 8.81E-015
68       61.94     0.6194  2.63E-008  4.246E-008 5.145E-015 8.306E-015
69       57.13     0.5713  2.426E-008  4.247E-008 6.558E-015 1.148E-014
70       57.13     0.5713  2.426E-008  4.247E-008 9.796E-015 1.715E-014
