Localizador/34Bus/ModeleTeste_VLN_elem.Txt

NODE-GROUND VOLTAGES BY CIRCUIT ELEMENT

Power Delivery Elements

Bus  (node ref)  Phase    Magnitude, kV (pu)    Angle

ELEMENT = "Vsource.SOURCE"
1     (  1)    1           56.062 (   0.971) /_   -1.3
1     (  2)    2           56.062 (   0.971) /_ -121.3
1     (  3)    3           56.062 (   0.971) /_  118.7
------------
1     (  0)    0                0 (       0) /_    0.0
1     (  0)    0                0 (       0) /_    0.0
1     (  0)    0                0 (       0) /_    0.0

ELEMENT = "Line.L1_2"
1     (  1)    1           56.062 (   0.971) /_   -1.3
1     (  2)    2           56.062 (   0.971) /_ -121.3
1     (  3)    3           56.062 (   0.971) /_  118.7
------------
2     (  4)    1           56.033 (  0.9705) /_   -1.3
2     (  5)    2           56.033 (  0.9705) /_ -121.3
2     (  6)    3           56.033 (  0.9705) /_  118.7

ELEMENT = "Line.L2_3"
2     (  4)    1           56.033 (  0.9705) /_   -1.3
2     (  5)    2           56.033 (  0.9705) /_ -121.3
2     (  6)    3           56.033 (  0.9705) /_  118.7
------------
3     (  7)    1           56.003 (    0.97) /_   -1.3
3     (  8)    2           56.003 (    0.97) /_ -121.3
3     (  9)    3           56.003 (    0.97) /_  118.7

ELEMENT = "Line.L3_4"
3     (  7)    1           56.003 (    0.97) /_   -1.3
3     (  8)    2           56.003 (    0.97) /_ -121.3
3     (  9)    3           56.003 (    0.97) /_  118.7
------------
4     ( 10)    1           56.003 (    0.97) /_   -1.3
4     ( 11)    2           56.003 (    0.97) /_ -121.3
4     ( 12)    3           56.003 (    0.97) /_  118.7

ELEMENT = "Line.L4_5"
4     ( 10)    1           56.003 (    0.97) /_   -1.3
4     ( 11)    2           56.003 (    0.97) /_ -121.3
4     ( 12)    3           56.003 (    0.97) /_  118.7
------------
5     ( 13)    1           55.926 (  0.9687) /_   -1.4
5     ( 14)    2           55.926 (  0.9687) /_ -121.4
5     ( 15)    3           55.926 (  0.9687) /_  118.6

ELEMENT = "Line.L5_6"
5     ( 13)    1           55.926 (  0.9687) /_   -1.4
5     ( 14)    2           55.926 (  0.9687) /_ -121.4
5     ( 15)    3           55.926 (  0.9687) /_  118.6
------------
6     ( 16)    1            55.42 (  0.9599) /_   -1.6
6     ( 17)    2            55.42 (  0.9599) /_ -121.6
6     ( 18)    3            55.42 (  0.9599) /_  118.4

ELEMENT = "Line.L6_7"
6     ( 16)    1            55.42 (  0.9599) /_   -1.6
6     ( 17)    2            55.42 (  0.9599) /_ -121.6
6     ( 18)    3            55.42 (  0.9599) /_  118.4
------------
7     ( 19)    1           49.672 (  0.8604) /_   -1.4
7     ( 20)    2           49.672 (  0.8604) /_ -121.4
7     ( 21)    3           49.672 (  0.8604) /_  118.6

ELEMENT = "Line.L7_8"
7     ( 19)    1           49.672 (  0.8604) /_   -1.4
7     ( 20)    2           49.672 (  0.8604) /_ -121.4
7     ( 21)    3           49.672 (  0.8604) /_  118.6
------------
8     ( 22)    1           43.705 (   0.757) /_   -1.1
8     ( 23)    2           43.705 (   0.757) /_ -121.1
8     ( 24)    3           43.705 (   0.757) /_  118.9

ELEMENT = "Line.L8_9"
8     ( 22)    1           43.705 (   0.757) /_   -1.1
8     ( 23)    2           43.705 (   0.757) /_ -121.1
8     ( 24)    3           43.705 (   0.757) /_  118.9
------------
9     ( 25)    1           42.298 (  0.7326) /_   -1.0
9     ( 26)    2           42.298 (  0.7326) /_ -121.0
9     ( 27)    3           42.298 (  0.7326) /_  119.0

ELEMENT = "Line.L9_10"
9     ( 25)    1           42.298 (  0.7326) /_   -1.0
9     ( 26)    2           42.298 (  0.7326) /_ -121.0
9     ( 27)    3           42.298 (  0.7326) /_  119.0
------------
10    ( 28)    1           41.622 (  0.7209) /_   -1.0
10    ( 29)    2           41.622 (  0.7209) /_ -121.0
10    ( 30)    3           41.622 (  0.7209) /_  119.0

ELEMENT = "Line.L10_11"
10    ( 28)    1           41.622 (  0.7209) /_   -1.0
10    ( 29)    2           41.622 (  0.7209) /_ -121.0
10    ( 30)    3           41.622 (  0.7209) /_  119.0
------------
11    ( 31)    1           36.862 (  0.6385) /_    0.7
11    ( 32)    2           36.862 (  0.6385) /_ -119.3
11    ( 33)    3           36.862 (  0.6385) /_  120.7

ELEMENT = "Line.L11_12"
11    ( 31)    1           36.862 (  0.6385) /_    0.7
11    ( 32)    2           36.862 (  0.6385) /_ -119.3
11    ( 33)    3           36.862 (  0.6385) /_  120.7
------------
12    ( 34)    1           35.831 (  0.6206) /_    1.1
12    ( 35)    2           35.831 (  0.6206) /_ -118.9
12    ( 36)    3           35.831 (  0.6206) /_  121.1

ELEMENT = "Line.L12_13"
12    ( 34)    1           35.831 (  0.6206) /_    1.1
12    ( 35)    2           35.831 (  0.6206) /_ -118.9
12    ( 36)    3           35.831 (  0.6206) /_  121.1
------------
13    ( 37)    1           33.165 (  0.5744) /_    2.2
13    ( 38)    2           33.165 (  0.5744) /_ -117.8
13    ( 39)    3           33.165 (  0.5744) /_  122.2

ELEMENT = "Line.L13_14"
13    ( 37)    1           33.165 (  0.5744) /_    2.2
13    ( 38)    2           33.165 (  0.5744) /_ -117.8
13    ( 39)    3           33.165 (  0.5744) /_  122.2
------------
14    ( 40)    1           30.889 (   0.535) /_    3.2
14    ( 41)    2           30.889 (   0.535) /_ -116.8
14    ( 42)    3           30.889 (   0.535) /_  123.2

ELEMENT = "Line.L14_15"
14    ( 40)    1           30.889 (   0.535) /_    3.2
14    ( 41)    2           30.889 (   0.535) /_ -116.8
14    ( 42)    3           30.889 (   0.535) /_  123.2
------------
15    ( 43)    1           28.658 (  0.4964) /_    4.3
15    ( 44)    2           28.658 (  0.4964) /_ -115.7
15    ( 45)    3           28.658 (  0.4964) /_  124.3

ELEMENT = "Line.L15_16"
15    ( 43)    1           28.658 (  0.4964) /_    4.3
15    ( 44)    2           28.658 (  0.4964) /_ -115.7
15    ( 45)    3           28.658 (  0.4964) /_  124.3
------------
16    ( 46)    1            26.47 (  0.4585) /_    5.5
16    ( 47)    2            26.47 (  0.4585) /_ -114.5
16    ( 48)    3            26.47 (  0.4585) /_  125.5

ELEMENT = "Line.L16_17"
16    ( 46)    1            26.47 (  0.4585) /_    5.5
16    ( 47)    2            26.47 (  0.4585) /_ -114.5
16    ( 48)    3            26.47 (  0.4585) /_  125.5
------------
17    ( 49)    1           26.065 (  0.4515) /_    5.8
17    ( 50)    2           26.065 (  0.4515) /_ -114.2
17    ( 51)    3           26.065 (  0.4515) /_  125.8

ELEMENT = "Line.L17_18"
17    ( 49)    1           26.065 (  0.4515) /_    5.8
17    ( 50)    2           26.065 (  0.4515) /_ -114.2
17    ( 51)    3           26.065 (  0.4515) /_  125.8
------------
18    ( 52)    1           25.407 (  0.4401) /_    6.2
18    ( 53)    2           25.407 (  0.4401) /_ -113.8
18    ( 54)    3           25.407 (  0.4401) /_  126.2

ELEMENT = "Line.L18_19"
18    ( 52)    1           25.407 (  0.4401) /_    6.2
18    ( 53)    2           25.407 (  0.4401) /_ -113.8
18    ( 54)    3           25.407 (  0.4401) /_  126.2
------------
19    ( 55)    1           25.401 (    0.44) /_    6.2
19    ( 56)    2           25.401 (    0.44) /_ -113.8
19    ( 57)    3           25.401 (    0.44) /_  126.2

ELEMENT = "Line.L19_20"
19    ( 55)    1           25.401 (    0.44) /_    6.2
19    ( 56)    2           25.401 (    0.44) /_ -113.8
19    ( 57)    3           25.401 (    0.44) /_  126.2
------------
20    ( 58)    1           25.038 (  0.4337) /_    6.4
20    ( 59)    2           25.038 (  0.4337) /_ -113.6
20    ( 60)    3           25.038 (  0.4337) /_  126.4

ELEMENT = "Line.L20_21"
20    ( 58)    1           25.038 (  0.4337) /_    6.4
20    ( 59)    2           25.038 (  0.4337) /_ -113.6
20    ( 60)    3           25.038 (  0.4337) /_  126.4
------------
21    ( 61)    1           24.805 (  0.4296) /_    6.6
21    ( 62)    2           24.805 (  0.4296) /_ -113.4
21    ( 63)    3           24.805 (  0.4296) /_  126.6

ELEMENT = "Line.L21_22"
21    ( 61)    1           24.805 (  0.4296) /_    6.6
21    ( 62)    2           24.805 (  0.4296) /_ -113.4
21    ( 63)    3           24.805 (  0.4296) /_  126.6
------------
22    ( 64)    1            24.43 (  0.4231) /_    6.9
22    ( 65)    2            24.43 (  0.4231) /_ -113.1
22    ( 66)    3            24.43 (  0.4231) /_  126.9

ELEMENT = "Line.L22_23"
22    ( 64)    1            24.43 (  0.4231) /_    6.9
22    ( 65)    2            24.43 (  0.4231) /_ -113.1
22    ( 66)    3            24.43 (  0.4231) /_  126.9
------------
23    ( 67)    1           24.425 (  0.4231) /_    6.9
23    ( 68)    2           24.425 (  0.4231) /_ -113.1
23    ( 69)    3           24.425 (  0.4231) /_  126.9

ELEMENT = "Line.L23_24"
23    ( 67)    1           24.425 (  0.4231) /_    6.9
23    ( 68)    2           24.425 (  0.4231) /_ -113.1
23    ( 69)    3           24.425 (  0.4231) /_  126.9
------------
24    ( 70)    1           24.369 (  0.4221) /_    6.9
24    ( 71)    2           24.369 (  0.4221) /_ -113.1
24    ( 72)    3           24.369 (  0.4221) /_  126.9

ELEMENT = "Line.L24_25"
24    ( 70)    1           24.369 (  0.4221) /_    6.9
24    ( 71)    2           24.369 (  0.4221) /_ -113.1
24    ( 72)    3           24.369 (  0.4221) /_  126.9
------------
25    ( 73)    1           24.249 (    0.42) /_    7.0
25    ( 74)    2           24.249 (    0.42) /_ -113.0
25    ( 75)    3           24.249 (    0.42) /_  127.0

ELEMENT = "Line.L25_26"
25    ( 73)    1           24.249 (    0.42) /_    7.0
25    ( 74)    2           24.249 (    0.42) /_ -113.0
25    ( 75)    3           24.249 (    0.42) /_  127.0
------------
26    ( 76)    1           24.119 (  0.4178) /_    7.1
26    ( 77)    2           24.119 (  0.4178) /_ -112.9
26    ( 78)    3           24.119 (  0.4178) /_  127.1

ELEMENT = "Line.L26_27"
26    ( 76)    1           24.119 (  0.4178) /_    7.1
26    ( 77)    2           24.119 (  0.4178) /_ -112.9
26    ( 78)    3           24.119 (  0.4178) /_  127.1
------------
27    ( 79)    1           24.065 (  0.4168) /_    7.1
27    ( 80)    2           24.065 (  0.4168) /_ -112.9
27    ( 81)    3           24.065 (  0.4168) /_  127.1

ELEMENT = "Line.L27_28"
27    ( 79)    1           24.065 (  0.4168) /_    7.1
27    ( 80)    2           24.065 (  0.4168) /_ -112.9
27    ( 81)    3           24.065 (  0.4168) /_  127.1
------------
28    ( 82)    1            24.05 (  0.4166) /_    7.1
28    ( 83)    2            24.05 (  0.4166) /_ -112.9
28    ( 84)    3            24.05 (  0.4166) /_  127.1

ELEMENT = "Line.L3_29"
3     (  7)    1           56.003 (    0.97) /_   -1.3
3     (  8)    2           56.003 (    0.97) /_ -121.3
3     (  9)    3           56.003 (    0.97) /_  118.7
------------
29    ( 85)    1           55.989 (  0.9698) /_   -1.3
29    ( 86)    2           55.989 (  0.9698) /_ -121.3
29    ( 87)    3           55.989 (  0.9698) /_  118.7

ELEMENT = "Line.L29_30"
29    ( 85)    1           55.989 (  0.9698) /_   -1.3
29    ( 86)    2           55.989 (  0.9698) /_ -121.3
29    ( 87)    3           55.989 (  0.9698) /_  118.7
------------
30    ( 88)    1           55.842 (  0.9672) /_   -1.4
30    ( 89)    2           55.842 (  0.9672) /_ -121.4
30    ( 90)    3           55.842 (  0.9672) /_  118.6

ELEMENT = "Line.L30_31"
30    ( 88)    1           55.842 (  0.9672) /_   -1.4
30    ( 89)    2           55.842 (  0.9672) /_ -121.4
30    ( 90)    3           55.842 (  0.9672) /_  118.6
------------
31    ( 91)    1           55.597 (   0.963) /_   -1.3
31    ( 92)    2           55.597 (   0.963) /_ -121.3
31    ( 93)    3           55.597 (   0.963) /_  118.7

ELEMENT = "Line.L31_32"
31    ( 91)    1           55.597 (   0.963) /_   -1.3
31    ( 92)    2           55.597 (   0.963) /_ -121.3
31    ( 93)    3           55.597 (   0.963) /_  118.7
------------
32    ( 94)    1           55.554 (  0.9622) /_   -1.3
32    ( 95)    2           55.554 (  0.9622) /_ -121.3
32    ( 96)    3           55.554 (  0.9622) /_  118.7

ELEMENT = "Line.L32_33"
32    ( 94)    1           55.554 (  0.9622) /_   -1.3
32    ( 95)    2           55.554 (  0.9622) /_ -121.3
32    ( 96)    3           55.554 (  0.9622) /_  118.7
------------
33    ( 97)    1           55.338 (  0.9585) /_   -1.2
33    ( 98)    2           55.338 (  0.9585) /_ -121.2
33    ( 99)    3           55.338 (  0.9585) /_  118.8

ELEMENT = "Line.L33_34"
33    ( 97)    1           55.338 (  0.9585) /_   -1.2
33    ( 98)    2           55.338 (  0.9585) /_ -121.2
33    ( 99)    3           55.338 (  0.9585) /_  118.8
------------
34    (100)    1           54.821 (  0.9495) /_   -1.0
34    (101)    2           54.821 (  0.9495) /_ -121.0
34    (102)    3           54.821 (  0.9495) /_  119.0

ELEMENT = "Line.L34_35"
34    (100)    1           54.821 (  0.9495) /_   -1.0
34    (101)    2           54.821 (  0.9495) /_ -121.0
34    (102)    3           54.821 (  0.9495) /_  119.0
------------
35    (103)    1           54.139 (  0.9377) /_   -0.8
35    (104)    2           54.139 (  0.9377) /_ -120.8
35    (105)    3           54.139 (  0.9377) /_  119.2

ELEMENT = "Line.L35_36"
35    (103)    1           54.139 (  0.9377) /_   -0.8
35    (104)    2           54.139 (  0.9377) /_ -120.8
35    (105)    3           54.139 (  0.9377) /_  119.2
------------
36    (106)    1            54.01 (  0.9355) /_   -0.7
36    (107)    2            54.01 (  0.9355) /_ -120.7
36    (108)    3            54.01 (  0.9355) /_  119.3

ELEMENT = "Line.L4_37"
4     ( 10)    1           56.003 (    0.97) /_   -1.3
4     ( 11)    2           56.003 (    0.97) /_ -121.3
4     ( 12)    3           56.003 (    0.97) /_  118.7
------------
37    (109)    1           55.978 (  0.9696) /_   -1.3
37    (110)    2           55.978 (  0.9696) /_ -121.3
37    (111)    3           55.978 (  0.9696) /_  118.7

ELEMENT = "Line.L37_38"
37    (109)    1           55.978 (  0.9696) /_   -1.3
37    (110)    2           55.978 (  0.9696) /_ -121.3
37    (111)    3           55.978 (  0.9696) /_  118.7
------------
38    (112)    1           55.683 (  0.9645) /_   -1.4
38    (113)    2           55.683 (  0.9645) /_ -121.4
38    (114)    3           55.683 (  0.9645) /_  118.6

ELEMENT = "Line.L38_39"
38    (112)    1           55.683 (  0.9645) /_   -1.4
38    (113)    2           55.683 (  0.9645) /_ -121.4
38    (114)    3           55.683 (  0.9645) /_  118.6
------------
39    (115)    1           55.444 (  0.9603) /_   -1.4
39    (116)    2           55.444 (  0.9603) /_ -121.4
39    (117)    3           55.444 (  0.9603) /_  118.6

ELEMENT = "Line.L39_40"
39    (115)    1           55.444 (  0.9603) /_   -1.4
39    (116)    2           55.444 (  0.9603) /_ -121.4
39    (117)    3           55.444 (  0.9603) /_  118.6
------------
40    (118)    1           55.375 (  0.9591) /_   -1.4
40    (119)    2           55.375 (  0.9591) /_ -121.4
40    (120)    3           55.375 (  0.9591) /_  118.6

ELEMENT = "Line.L40_41"
40    (118)    1           55.375 (  0.9591) /_   -1.4
40    (119)    2           55.375 (  0.9591) /_ -121.4
40    (120)    3           55.375 (  0.9591) /_  118.6
------------
41    (121)    1           55.372 (  0.9591) /_   -1.4
41    (122)    2           55.372 (  0.9591) /_ -121.4
41    (123)    3           55.372 (  0.9591) /_  118.6

ELEMENT = "Line.L41_42"
41    (121)    1           55.372 (  0.9591) /_   -1.4
41    (122)    2           55.372 (  0.9591) /_ -121.4
41    (123)    3           55.372 (  0.9591) /_  118.6
------------
42    (124)    1           54.525 (  0.9444) /_   -1.2
42    (125)    2           54.525 (  0.9444) /_ -121.2
42    (126)    3           54.525 (  0.9444) /_  118.8

ELEMENT = "Line.L42_43"
42    (124)    1           54.525 (  0.9444) /_   -1.2
42    (125)    2           54.525 (  0.9444) /_ -121.2
42    (126)    3           54.525 (  0.9444) /_  118.8
------------
43    (127)    1           54.174 (  0.9383) /_   -1.1
43    (128)    2           54.174 (  0.9383) /_ -121.1
43    (129)    3           54.174 (  0.9383) /_  118.9

ELEMENT = "Line.L43_44"
43    (127)    1           54.174 (  0.9383) /_   -1.1
43    (128)    2           54.174 (  0.9383) /_ -121.1
43    (129)    3           54.174 (  0.9383) /_  118.9
------------
44    (130)    1           54.128 (  0.9375) /_   -1.0
44    (131)    2           54.128 (  0.9375) /_ -121.0
44    (132)    3           54.128 (  0.9375) /_  119.0

ELEMENT = "Line.L44_45"
44    (130)    1           54.128 (  0.9375) /_   -1.0
44    (131)    2           54.128 (  0.9375) /_ -121.0
44    (132)    3           54.128 (  0.9375) /_  119.0
------------
45    (133)    1           54.118 (  0.9374) /_   -1.0
45    (134)    2           54.118 (  0.9374) /_ -121.0
45    (135)    3           54.118 (  0.9374) /_  119.0

ELEMENT = "Line.L45_46"
45    (133)    1           54.118 (  0.9374) /_   -1.0
45    (134)    2           54.118 (  0.9374) /_ -121.0
45    (135)    3           54.118 (  0.9374) /_  119.0
------------
46    (136)    1           54.003 (  0.9354) /_   -1.0
46    (137)    2           54.003 (  0.9354) /_ -121.0
46    (138)    3           54.003 (  0.9354) /_  119.0

ELEMENT = "Line.L46_47"
46    (136)    1           54.003 (  0.9354) /_   -1.0
46    (137)    2           54.003 (  0.9354) /_ -121.0
46    (138)    3           54.003 (  0.9354) /_  119.0
------------
47    (139)    1           54.003 (  0.9354) /_   -1.0
47    (140)    2           54.003 (  0.9354) /_ -121.0
47    (141)    3           54.003 (  0.9354) /_  119.0

ELEMENT = "Line.L5_48"
5     ( 13)    1           55.926 (  0.9687) /_   -1.4
5     ( 14)    2           55.926 (  0.9687) /_ -121.4
5     ( 15)    3           55.926 (  0.9687) /_  118.6
------------
48    (142)    1           55.849 (  0.9673) /_   -1.4
48    (143)    2           55.849 (  0.9673) /_ -121.4
48    (144)    3           55.849 (  0.9673) /_  118.6

ELEMENT = "Line.L48_49"
48    (142)    1           55.849 (  0.9673) /_   -1.4
48    (143)    2           55.849 (  0.9673) /_ -121.4
48    (144)    3           55.849 (  0.9673) /_  118.6
------------
49    (145)    1           53.925 (   0.934) /_   -2.0
49    (146)    2           53.925 (   0.934) /_ -122.0
49    (147)    3           53.925 (   0.934) /_  118.0

ELEMENT = "Line.L49_50"
49    (145)    1           53.925 (   0.934) /_   -2.0
49    (146)    2           53.925 (   0.934) /_ -122.0
49    (147)    3           53.925 (   0.934) /_  118.0
------------
50    (148)    1           48.196 (  0.8348) /_   -4.0
50    (149)    2           48.196 (  0.8348) /_ -124.0
50    (150)    3           48.196 (  0.8348) /_  116.0

ELEMENT = "Line.L50_51"
50    (148)    1           48.196 (  0.8348) /_   -4.0
50    (149)    2           48.196 (  0.8348) /_ -124.0
50    (150)    3           48.196 (  0.8348) /_  116.0
------------
51    (151)    1           47.263 (  0.8186) /_   -4.6
51    (152)    2           47.263 (  0.8186) /_ -124.6
51    (153)    3           47.263 (  0.8186) /_  115.4

ELEMENT = "Line.L9_52"
9     ( 25)    1           42.298 (  0.7326) /_   -1.0
9     ( 26)    2           42.298 (  0.7326) /_ -121.0
9     ( 27)    3           42.298 (  0.7326) /_  119.0
------------
52    (154)    1           42.246 (  0.7317) /_   -1.0
52    (155)    2           42.246 (  0.7317) /_ -121.0
52    (156)    3           42.246 (  0.7317) /_  119.0

ELEMENT = "Line.L52_53"
52    (154)    1           42.246 (  0.7317) /_   -1.0
52    (155)    2           42.246 (  0.7317) /_ -121.0
52    (156)    3           42.246 (  0.7317) /_  119.0
------------
53    (157)    1           42.232 (  0.7315) /_   -1.0
53    (158)    2           42.232 (  0.7315) /_ -121.0
53    (159)    3           42.232 (  0.7315) /_  119.0

ELEMENT = "Line.L10_54"
10    ( 28)    1           41.622 (  0.7209) /_   -1.0
10    ( 29)    2           41.622 (  0.7209) /_ -121.0
10    ( 30)    3           41.622 (  0.7209) /_  119.0
------------
54    (160)    1           40.405 (  0.6998) /_   -0.9
54    (161)    2           40.405 (  0.6998) /_ -120.9
54    (162)    3           40.405 (  0.6998) /_  119.1

ELEMENT = "Line.L54_55"
54    (160)    1           40.405 (  0.6998) /_   -0.9
54    (161)    2           40.405 (  0.6998) /_ -120.9
54    (162)    3           40.405 (  0.6998) /_  119.1
------------
55    (163)    1           38.989 (  0.6753) /_   -0.9
55    (164)    2           38.989 (  0.6753) /_ -120.9
55    (165)    3           38.989 (  0.6753) /_  119.1

ELEMENT = "Line.L55_56"
55    (163)    1           38.989 (  0.6753) /_   -0.9
55    (164)    2           38.989 (  0.6753) /_ -120.9
55    (165)    3           38.989 (  0.6753) /_  119.1
------------
56    (166)    1           37.094 (  0.6425) /_   -0.9
56    (167)    2           37.094 (  0.6425) /_ -120.9
56    (168)    3           37.094 (  0.6425) /_  119.1

ELEMENT = "Line.L56_57"
56    (166)    1           37.094 (  0.6425) /_   -0.9
56    (167)    2           37.094 (  0.6425) /_ -120.9
56    (168)    3           37.094 (  0.6425) /_  119.1
------------
57    (169)    1           35.293 (  0.6113) /_   -0.9
57    (170)    2           35.293 (  0.6113) /_ -120.9
57    (171)    3           35.293 (  0.6113) /_  119.1

ELEMENT = "Line.L57_58"
57    (169)    1           35.293 (  0.6113) /_   -0.9
57    (170)    2           35.293 (  0.6113) /_ -120.9
57    (171)    3           35.293 (  0.6113) /_  119.1
------------
58    (172)    1           25.869 (  0.4481) /_    2.3
58    (173)    2           25.869 (  0.4481) /_ -117.7
58    (174)    3           25.869 (  0.4481) /_  122.3

ELEMENT = "Line.L58_59"
58    (172)    1           25.869 (  0.4481) /_    2.3
58    (173)    2           25.869 (  0.4481) /_ -117.7
58    (174)    3           25.869 (  0.4481) /_  122.3
------------
59    (175)    1           21.271 (  0.3684) /_    4.8
59    (176)    2           21.271 (  0.3684) /_ -115.2
59    (177)    3           21.271 (  0.3684) /_  124.8

ELEMENT = "Line.L59_60"
59    (175)    1           21.271 (  0.3684) /_    4.8
59    (176)    2           21.271 (  0.3684) /_ -115.2
59    (177)    3           21.271 (  0.3684) /_  124.8
------------
60    (178)    1           19.507 (  0.3379) /_    6.2
60    (179)    2           19.507 (  0.3379) /_ -113.8
60    (180)    3           19.507 (  0.3379) /_  126.2

ELEMENT = "Line.L60_61"
60    (178)    1           19.507 (  0.3379) /_    6.2
60    (179)    2           19.507 (  0.3379) /_ -113.8
60    (180)    3           19.507 (  0.3379) /_  126.2
------------
61    (181)    1           17.355 (  0.3006) /_    8.1
61    (182)    2           17.355 (  0.3006) /_ -111.9
61    (183)    3           17.355 (  0.3006) /_  128.1

ELEMENT = "Line.L61_62"
61    (181)    1           17.355 (  0.3006) /_    8.1
61    (182)    2           17.355 (  0.3006) /_ -111.9
61    (183)    3           17.355 (  0.3006) /_  128.1
------------
62    (184)    1           14.225 (  0.2464) /_    9.5
62    (185)    2           14.225 (  0.2464) /_ -110.5
62    (186)    3           14.225 (  0.2464) /_  129.5

ELEMENT = "Line.L62_63"
62    (184)    1           14.225 (  0.2464) /_    9.5
62    (185)    2           14.225 (  0.2464) /_ -110.5
62    (186)    3           14.225 (  0.2464) /_  129.5
------------
63    (187)    1           13.373 (  0.2316) /_   11.6
63    (188)    2           13.373 (  0.2316) /_ -108.4
63    (189)    3           13.373 (  0.2316) /_  131.6

ELEMENT = "Line.L63_64"
63    (187)    1           13.373 (  0.2316) /_   11.6
63    (188)    2           13.373 (  0.2316) /_ -108.4
63    (189)    3           13.373 (  0.2316) /_  131.6
------------
64    (190)    1           13.226 (  0.2291) /_   11.7
64    (191)    2           13.226 (  0.2291) /_ -108.3
64    (192)    3           13.226 (  0.2291) /_  131.7

ELEMENT = "Line.L64_65"
64    (190)    1           13.226 (  0.2291) /_   11.7
64    (191)    2           13.226 (  0.2291) /_ -108.3
64    (192)    3           13.226 (  0.2291) /_  131.7
------------
65    (193)    1           12.508 (  0.2166) /_   12.2
65    (194)    2           12.508 (  0.2166) /_ -107.8
65    (195)    3           12.508 (  0.2166) /_  132.2

ELEMENT = "Line.L65_66"
65    (193)    1           12.508 (  0.2166) /_   12.2
65    (194)    2           12.508 (  0.2166) /_ -107.8
65    (195)    3           12.508 (  0.2166) /_  132.2
------------
66    (196)    1           12.294 (  0.2129) /_   12.3
66    (197)    2           12.294 (  0.2129) /_ -107.7
66    (198)    3           12.294 (  0.2129) /_  132.3

ELEMENT = "Line.L12_67"
12    ( 34)    1           35.831 (  0.6206) /_    1.1
12    ( 35)    2           35.831 (  0.6206) /_ -118.9
12    ( 36)    3           35.831 (  0.6206) /_  121.1
------------
67    (199)    1           35.763 (  0.6194) /_    1.2
67    (200)    2           35.763 (  0.6194) /_ -118.8
67    (201)    3           35.763 (  0.6194) /_  121.2

ELEMENT = "Line.L67_68"
67    (199)    1           35.763 (  0.6194) /_    1.2
67    (200)    2           35.763 (  0.6194) /_ -118.8
67    (201)    3           35.763 (  0.6194) /_  121.2
------------
68    (202)    1           35.762 (  0.6194) /_    1.2
68    (203)    2           35.762 (  0.6194) /_ -118.8
68    (204)    3           35.762 (  0.6194) /_  121.2

ELEMENT = "Line.L13_69"
13    ( 37)    1           33.165 (  0.5744) /_    2.2
13    ( 38)    2           33.165 (  0.5744) /_ -117.8
13    ( 39)    3           33.165 (  0.5744) /_  122.2
------------
69    (205)    1           32.983 (  0.5713) /_    2.3
69    (206)    2           32.983 (  0.5713) /_ -117.7
69    (207)    3           32.983 (  0.5713) /_  122.3

ELEMENT = "Line.L69_70"
69    (205)    1           32.983 (  0.5713) /_    2.3
69    (206)    2           32.983 (  0.5713) /_ -117.7
69    (207)    3           32.983 (  0.5713) /_  122.3
------------
70    (208)    1           32.983 (  0.5713) /_    2.3
70    (209)    2           32.983 (  0.5713) /_ -117.7
70    (210)    3           32.983 (  0.5713) /_  122.3

= = = = = = = = = = = = = = = = = = =  = = = = = = = = = = =  = =

Power Conversion Elements

Bus  (node ref)  Phase    Magnitude, kV (pu)    Angle

ELEMENT = "Load.L7"
7     ( 19)    1           49.672 (  0.8604) /_   -1.4
7     ( 20)    2           49.672 (  0.8604) /_ -121.4
7     ( 21)    3           49.672 (  0.8604) /_  118.6
7     (  0)    0                0 (       0) /_    0.0

ELEMENT = "Load.L8"
8     ( 22)    1           43.705 (   0.757) /_   -1.1
8     ( 23)    2           43.705 (   0.757) /_ -121.1
8     ( 24)    3           43.705 (   0.757) /_  118.9
8     (  0)    0                0 (       0) /_    0.0

ELEMENT = "Load.L9"
9     ( 25)    1           42.298 (  0.7326) /_   -1.0
9     ( 26)    2           42.298 (  0.7326) /_ -121.0
9     ( 27)    3           42.298 (  0.7326) /_  119.0
9     (  0)    0                0 (       0) /_    0.0

ELEMENT = "Load.L10"
10    ( 28)    1           41.622 (  0.7209) /_   -1.0
10    ( 29)    2           41.622 (  0.7209) /_ -121.0
10    ( 30)    3           41.622 (  0.7209) /_  119.0
10    (  0)    0                0 (       0) /_    0.0

ELEMENT = "Load.L11"
11    ( 31)    1           36.862 (  0.6385) /_    0.7
11    ( 32)    2           36.862 (  0.6385) /_ -119.3
11    ( 33)    3           36.862 (  0.6385) /_  120.7
11    (  0)    0                0 (       0) /_    0.0

ELEMENT = "Load.L12"
12    ( 34)    1           35.831 (  0.6206) /_    1.1
12    ( 35)    2           35.831 (  0.6206) /_ -118.9
12    ( 36)    3           35.831 (  0.6206) /_  121.1
12    (  0)    0                0 (       0) /_    0.0

ELEMENT = "Load.L13"
13    ( 37)    1           33.165 (  0.5744) /_    2.2
13    ( 38)    2           33.165 (  0.5744) /_ -117.8
13    ( 39)    3           33.165 (  0.5744) /_  122.2
13    (  0)    0                0 (       0) /_    0.0

ELEMENT = "Load.L14"
14    ( 40)    1           30.889 (   0.535) /_    3.2
14    ( 41)    2           30.889 (   0.535) /_ -116.8
14    ( 42)    3           30.889 (   0.535) /_  123.2
14    (  0)    0                0 (       0) /_    0.0

ELEMENT = "Load.L15"
15    ( 43)    1           28.658 (  0.4964) /_    4.3
15    ( 44)    2           28.658 (  0.4964) /_ -115.7
15    ( 45)    3           28.658 (  0.4964) /_  124.3
15    (  0)    0                0 (       0) /_    0.0

ELEMENT = "Load.L17"
17    ( 49)    1           26.065 (  0.4515) /_    5.8
17    ( 50)    2           26.065 (  0.4515) /_ -114.2
17    ( 51)    3           26.065 (  0.4515) /_  125.8
17    (  0)    0                0 (       0) /_    0.0

ELEMENT = "Load.L18"
18    ( 52)    1           25.407 (  0.4401) /_    6.2
18    ( 53)    2           25.407 (  0.4401) /_ -113.8
18    ( 54)    3           25.407 (  0.4401) /_  126.2
18    (  0)    0                0 (       0) /_    0.0

ELEMENT = "Load.L19"
19    ( 55)    1           25.401 (    0.44) /_    6.2
19    ( 56)    2           25.401 (    0.44) /_ -113.8
19    ( 57)    3           25.401 (    0.44) /_  126.2
19    (  0)    0                0 (       0) /_    0.0

ELEMENT = "Load.L21"
21    ( 61)    1           24.805 (  0.4296) /_    6.6
21    ( 62)    2           24.805 (  0.4296) /_ -113.4
21    ( 63)    3           24.805 (  0.4296) /_  126.6
21    (  0)    0                0 (       0) /_    0.0

ELEMENT = "Load.L22"
22    ( 64)    1            24.43 (  0.4231) /_    6.9
22    ( 65)    2            24.43 (  0.4231) /_ -113.1
22    ( 66)    3            24.43 (  0.4231) /_  126.9
22    (  0)    0                0 (       0) /_    0.0

ELEMENT = "Load.L23"
23    ( 67)    1           24.425 (  0.4231) /_    6.9
23    ( 68)    2           24.425 (  0.4231) /_ -113.1
23    ( 69)    3           24.425 (  0.4231) /_  126.9
23    (  0)    0                0 (       0) /_    0.0

ELEMENT = "Load.L25"
25    ( 73)    1           24.249 (    0.42) /_    7.0
25    ( 74)    2           24.249 (    0.42) /_ -113.0
25    ( 75)    3           24.249 (    0.42) /_  127.0
25    (  0)    0                0 (       0) /_    0.0

ELEMENT = "Load.L27"
27    ( 79)    1           24.065 (  0.4168) /_    7.1
...